! Blank file in which we can put "overrides" for parameters


#override ICE_SHELF = False ! Turn off the ice shelf so we just have a block of ocean
#override TOPO_CONFIG = "file"
#override TOPO_FILE = "Topog_invshelf_IC_200700Grosveld.nc" ! Set topography to be grosveld cavity inverse
#override TOPO_VARNAME = "depth"

#override REGRIDDING_COORDINATE_MODE = "SIGMA"
#override ALE_COORDINATE_CONFIG = "UNIFORM"
#override NK=23

!TS linear
#override TS_CONFIG = "TS_profile"            !
                                ! A string that determines how the initial temperatures and salinities are
                                ! specified for a new run:
                                !     file - read velocities from the file specified
                                !       by (TS_FILE).
#override TS_FILE = "lin_ISOMIP_initTS_saltlin.nc"
TEMP_IC_VAR = "temp"
SALT_IC_VAR = "salt"

