! Blank file in which we can put "overrides" for parameters

#override SHELF_THERMO = True

! ADD EOS
! === module MOM_EOS ===
#override EQN_OF_STATE = "LINEAR"         ! default = "WRIGHT"
                                ! EQN_OF_STATE determines which ocean equation of state should be used.
                                ! Currently, the valid choices are "LINEAR", "UNESCO", "WRIGHT", "NEMO" and
                                ! "TEOS10". This is only used if USE_EOS is true.
#override RHO_T0_S0 = 999.9106806711001   !   [kg m-3] default = 1000.0
                                ! When EQN_OF_STATE=LINEAR, this is the density at T=0, S=0.
#override DRHO_DT = -0.0383569483         !   [kg m-3 K-1] default = -0.2
                                ! When EQN_OF_STATE=LINEAR, this is the partial derivative of density with
                                ! temperature.
#override DRHO_DS = 0.805876093           !   [kg m-3 PSU-1] default = 0.8
                                ! When EQN_OF_STATE=LINEAR, this is the partial derivative of density with
                                ! salinity.
#override TFREEZE_FORM = "MILLERO_78"     ! default = "LINEAR"
                                ! TFREEZE_FORM determines which expression should be used for the freezing
                                ! point.  Currently, the valid choices are "LINEAR", "MILLERO_78", "TEOS10"

! === module MOM_surface_forcing ===
#override VARIABLE_WINDS = False          !   [Boolean] default = True
                                ! If true, the winds vary in time after the initialization.
#override VARIABLE_BUOYFORCE = False      !   [Boolean] default = True
                                ! If true, the buoyancy forcing varies in time after the initialization of the
                                ! model.
#override BUOY_CONFIG = "NONE"            ! default = "zero"
                                ! The character string that indicates how buoyancy forcing is specified. Valid
                                ! options include (file), (zero), (linear), (USER), (BFB) and (NONE).
#override WIND_CONFIG = "zero"            ! default = "zero"
                                ! The character string that indicates how wind forcing is specified. Valid
                                ! options include (file), (2gyre), (1gyre), (gyres), (zero), and (USER).
#override GUST_CONST = 0.02               !   [Pa] default = 0.0
                                ! The background gustiness in the winds.


