! Blank file in which we can put "overrides" for parameters


#override ICE_SHELF = False ! Turn off the ice shelf so we just have a block of ocean
#override TOPO_CONFIG = "file"
#override TOPO_FILE = "Topog_invshelf_IC_200700Grosveld.nc" ! Set topography to be grosveld cavity inverse
#override TOPO_VARNAME = "depth"

#override REGRIDDING_COORDINATE_MODE = "SIGMA"
#override ALE_COORDINATE_CONFIG = "UNIFORM"
!#override NK=23

!TS linear
#override TS_CONFIG = "ISOMIP"            !
!#override TS_FILE = "lin_ISOMIP_initTS_saltlin.nc"
!TEMP_IC_VAR = "temp"
!SALT_IC_VAR = "salt"
ISOMIP_T_SUR = -1.9
ISOMIP_T_BOT = -1.9
ISOMIP_S_SUR = 33.5
ISOMIP_S_BOT = 34.5

