! Blank file in which we can put "overrides" for parameters

!Turn shelf thermodynamics on
! === module MOM_ice_shelf ===
#override SHELF_THERMO = True

#override IGNORE_FLUXES_OVER_LAND = True

#override SHELF_THREE_EQN = False         !   [Boolean] default = True
                                ! If true, use the three equation expression of consistency to calculate the
                                ! fluxes at the ice-ocean interface.
#override SHELF_2EQ_GAMMA_T = 0.0001     !   [m s-1]
                                ! If SHELF_THREE_EQN is false, this the fixed turbulent exchange velocity at the
                                ! ice-ocean interface.
#override ICE_SHELF_TEMPERATURE = -20.0   !   [degC] default = -15.0
                                ! The ISS%area_shelf_htemperature at the center of the ice shelf.
#override SHELF_INSULATOR = True
#override COL_THICK_MELT_THRESHOLD = 0.0
