! Blank file in which we can put "overrides" for parameters
! Rho coords
#override COORD_CONFIG = "linear" !"ALE"
#override REGRIDDING_COORDINATE_MODE = "RHO"
#override LIGHTEST_DENSITY = 1027.0    !   [kg m-3] default = 1027.0
                                ! The reference potential density used for the surface interface.
#override DENSITY_RANGE = 1.0       !   [kg m-3] default = 2.0
                                ! The range of reference potential densities across all interfaces.
#override ALE_COORDINATE_CONFIG = "UNIFORM"
!TS linear
#override TS_CONFIG = "ISOMIP"            !
!#override TS_FILE = "lin_ISOMIP_initTS_saltlin.nc"
!TEMP_IC_VAR = "temp"
!SALT_IC_VAR = "salt"
ISOMIP_T_SUR = -1.9
ISOMIP_T_BOT = -1.9
ISOMIP_S_SUR = 33.5
ISOMIP_S_BOT = 34.5
